Circuit: * C:\users\dg\Desktop\Engineering_4B\ltspice\PWM-attenuation\PWM-attenuation.asc

Per .tran options, skipping operating point for transient analysis.

Date: Sun Sep 30 15:47:06 2018
Total elapsed time: 0.103 seconds.

tnom = 27
temp = 27
method = modified trap
totiter = 1848
traniter = 1848
tranpoints = 925
accept = 809
rejected = 116
matrix size = 32
fillins = 0
solver = Normal
Matrix Compiler1: 1014 bytes object code size  6.1/1.9/[1.7]
Matrix Compiler2: 1.86 KB object code size  1.7/2.1/[1.6]

